 128

C   	    0.00000	    0.00000	    0.00000
C   	    1.61000	    0.00000	    0.00000
N   	   -0.57828	    1.36235	    0.00000
N   	    2.18828	    0.00000	    1.36235
C   	   -1.89027	    1.43366	    0.68117
C   	   -1.32897	    1.67192	    1.23735
C   	    2.41423	   -1.36235	    1.89466
C   	    3.13826	   -1.11235	    1.58733
C   	   -1.76584	    1.75351	    2.25417
C   	   -2.51699	    3.11200	    2.68124
O   	   -3.74512	    3.27131	    2.51153
C   	   -2.87608	    2.02325	    0.96328
C   	   -3.07051	    3.30133	    0.00369
O   	   -4.20278	    3.72126	   -0.31896
C   	    1.36655	   -2.44290	    1.32294
C   	    0.04228	   -2.57558	    2.22892
O   	   -0.71877	   -1.60575	    2.43565
C   	    3.90388	   -1.56680	    0.24591
C   	    4.93730	   -2.77686	    0.49065
O   	    5.20133	   -3.61290	   -0.40031
N   	   -3.83527	    3.15363	    2.44462
H   	   -4.59300	    2.82737	    3.15701
C   	   -4.84542	    2.70452	    3.42864
C   	   -5.33297	    3.88246	    4.41192
N   	   -5.73413	    3.39073	    5.74896
C   	   -4.92933	    3.97455	    6.84525
C   	   -5.62058	    4.42348	    6.80296
C   	   -3.61726	    3.10853	    7.19250
C   	   -3.17962	    3.22166	    8.73774
O   	   -1.98672	    3.12099	    9.09742
C   	   -6.53888	    5.71519	    6.51956
C   	   -8.10678	    5.36299	    6.42092
O   	   -8.77376	    5.59315	    5.38909
N   	   -4.33699	    3.64732	   -0.26444
H   	   -4.76119	    3.67742	   -1.26806
C   	   -4.89021	    3.68062	   -1.63676
C   	   -6.14005	    2.68539	   -1.83551
N   	   -5.90291	    1.65985	   -2.87590
C   	   -4.99326	    2.12288	   -3.94761
C   	   -4.52650	    1.69433	   -3.41879
C   	   -5.29902	    1.43749	   -5.37199
C   	   -5.67972	    2.50535	   -6.51516
O   	   -5.00581	    2.62451	   -7.56118
C   	   -3.72775	    0.31426	   -3.19632
C   	   -4.69259	   -0.97441	   -3.17371
O   	   -5.76113	   -1.01331	   -3.82118
N   	   -0.68653	   -1.46010	    2.37085
H   	   -1.72714	   -1.36820	    2.05974
C   	   -2.09894	   -1.35981	    1.94022
C   	   -2.25859	   -0.85890	    0.41848
N   	   -3.50904	   -0.10180	    0.18705
C   	   -4.72593	   -0.89199	    0.47895
C   	   -4.57741	   -0.44045	    1.15365
C   	   -6.08622	   -0.06838	    0.22720
C   	   -5.94562	    1.03891	   -0.93308
O   	   -6.13350	    2.25518	   -0.71426
C   	   -4.55123	    0.48575	    2.47030
C   	   -4.73955	    2.05071	    2.14240
O   	   -5.28042	    2.83636	    2.95032
N   	    5.13126	   -3.60259	   -0.54672
H   	    4.34054	   -4.18799	   -1.01594
C   	    4.04063	   -4.38748	   -1.16711
C   	    3.32754	   -5.39774	   -0.13610
N   	    3.42658	   -6.81442	   -0.55275
C   	    2.77107	   -7.74311	    0.39501
C   	    2.22373	   -7.60434	   -0.20693
C   	    1.58464	   -8.59694	   -0.27987
C   	    0.40555	   -7.67539	   -0.87369
O   	   -0.77347	   -7.76548	   -0.46836
C   	    1.11045	   -7.59690	   -1.36996
C   	    1.74143	   -7.44998	   -2.84386
O   	    2.42584	   -6.45798	   -3.17554
N   	   -1.86921	    3.09567	    8.98786
H   	   -1.16924	    3.93100	    9.00685
C   	   -0.93821	    4.24599	    9.00813
C   	   -0.80114	    4.91876	   10.46439
N   	   -1.20476	    6.34253	   10.48395
H   	   -1.51796	    6.64569	    9.48490
H   	   -2.03589	    6.49459	    9.79533
N   	   -8.70372	    5.66062	    5.25873
H   	   -9.17968	    6.61776	    5.04554
C   	   -9.34361	    6.96840	    4.99292
C   	   -9.29507	    7.38831	    3.43940
N   	   -9.25061	    8.85381	    3.23760
H   	   -8.34016	    9.11968	    2.70048
H   	   -8.79137	    9.07465	    2.27406
N   	   -4.87501	    2.53118	   -7.58631
H   	   -5.02827	    1.92418	   -8.47859
C   	   -5.10424	    1.69682	   -8.78702
C   	   -4.37770	    0.26246	   -8.70441
N   	   -3.39835	    0.04674	   -9.79286
H   	   -3.71372	    0.59569	  -10.68016
H   	   -3.30391	    0.95812	  -10.38325
N   	   -5.80763	   -0.88641	   -3.91165
H   	   -5.88951	   -0.29617	   -4.82435
C   	   -5.89417	   -0.07772	   -5.14815
C   	   -4.51681	    0.67586	   -5.50466
N   	   -4.32563	    0.87397	   -6.95883
H   	   -3.41343	    0.36980	   -7.27791
H   	   -3.88286	   -0.02241	   -7.39306
N   	   -6.17351	    2.30718	   -0.56544
H   	   -6.85585	    2.59693	    0.23365
C   	   -7.10546	    2.67569	    0.52363
C   	   -7.21119	    1.54934	    1.66917
N   	   -8.53543	    1.51848	    2.32935
H   	   -8.42062	    1.18146	    3.35956
H   	   -8.42703	    1.80367	    3.37578
N   	   -5.33473	    2.78278	    3.09395
H   	   -4.79962	    3.29023	    3.89660
C   	   -4.58587	    3.46278	    4.17432
C   	   -5.43312	    3.60099	    5.53637
N   	   -6.68191	    4.37646	    5.36444
H   	   -6.54596	    5.11455	    4.57397
H   	   -6.81687	    4.61989	    4.31058
N   	   -0.81303	   -7.87228	   -0.35226
H   	   -1.38833	   -7.10155	    0.16067
C   	   -1.57492	   -6.80905	    0.34017
C   	   -1.87599	   -5.53702	   -0.59973
N   	   -3.13418	   -4.84216	   -0.24685
H   	   -3.97157	   -5.53274	   -0.34670
H   	   -3.80667	   -5.53895	    0.25349
N   	    2.45429	   -6.33799	   -3.06949
H   	    2.21024	   -5.60260	   -3.83613
C   	    2.10250	   -5.35373	   -4.11728
C   	    2.54507	   -3.85159	   -3.74338
N   	    1.65861	   -2.82374	   -4.33340
H   	    2.00874	   -1.83251	   -4.04536
H   	    2.24815	   -1.94902	   -4.60800
